- General variables
2   				- Wave input type. 1=Spectrum/elevation in (0,0), 2=GWF
1              - Output format, vpOne/USFOS=1, FASTv8=2, SIMA=3 (SIMA not implemented yet)
1				- Perform simulation (1) or not (0), only available for Wavetype=2.
700					- Complete simulation time including startup
0.2					    - Time-step for hydrodynamics
1					- Seed number
30					- Depth
-1					- Tide (added to depth) [m]
- Structural variables
9				- Pile diameter for MacCamy and Fuchs correction, not used if zero
- Wind Sea variables
5					- Significant wave height for wind-sea
8				    - Peak period for wind-sea
0                   - JONSWAP peak shape factor for wind sea, use default if 0.
0					- Wind sea mean direction [deg]
4       			- Spreading exponent for wind-sea/total sea, long-crested used if zero, recommended 2 or 4.
11 					- Minimum number of spreading directions. Will be modified according to swell direction.
- Swell variables
0		    		- Significant wave height fo swell, turned off if zero
14                   - Peak period for swell
0                   - JONSWAP peak shape factor for swell, use default if 0.
90+10	    			- Swell heading [deg]
0                   - Swell spreading exponent, long crested if zero.
- Current with linear extrapolation to the free surface (Wheeler)
45-20			- Current direction [deg]
1			- Current velocity [m/s]
0.14			- Current power law [-]
- Wave theory parameters
1.1    			    - Simulation order undisturbed wave (see documentation, Recommended: No elevation=1, Vertical stretch=1.1, Wheeler to be implemented.)
0				    - Wamit second order forces ON/OFF (imply simulation order=1)
/Users/jan-torehorn/Documents/NTNU/V15/Article2/wamit/WAMIT_5S.12s - Wamit second order sum force file if enabled
0 						- Node for Wamit forces (USFOS/vpOne)
- Misc parameters
1     					- randAmp, use random wave amplitudes if = 1;
1 -10 10                  - x-distribution, [number of x-values, x_min,x_max], blank space separation
1 -10 10                  - y-distribution
3 				        - Distribution of wave kinematics points in z-direction (logarithmic:0, uniform:1,  user-defined:3)
10                      - Maximum z-value for wave kinematics [m]
41						- Number of values in z-direction                
-28   - Table containing input z-values if Z_OPTION=3 and NZ>0, must correspond to nodes in HydroDyn if FAST is used.
-26
-24
-22
-20
-18
-16
-15
-14
-13
-12
-11
-10
-9
-8
-7
-6
-5.5
-5
-4.5
-4
-3.5
-3
-2.5
-2
-1.5
-1
-0.5
0
0.5
1
1.5
2
2.5
3
3.5
4
4.5
5
5.5
6
